
**** 11/10/15 20:10:33 ****** PSpice Lite (October 2012) ****** ID# 10813 ****

 Experiment 2.2


 ****     CIRCUIT DESCRIPTION


******************************************************************************




*Circuit Analysis
Vin1 30 0  SIN (0 5 20K)
Vin2 31 0  SIN (0 5 .48Meg)

E1_mult 0 2 value {V(30)*V(31)}

D 2 3 1N34A

.MODEL 1N34A D ( bv=75 cjo=0.5e-12 eg=0.67 ibv=18e-3 is=2e-7 rs=7 n=1.3 vj=0.1 m=0.27 )
Rdem 3 0 10K
Cdem 3 0 2.24n

*analysis request
.PROBE
.TRAN 0 1m
.END

**** 11/10/15 20:10:33 ****** PSpice Lite (October 2012) ****** ID# 10813 ****

 Experiment 2.2


 ****     Diode MODEL PARAMETERS


******************************************************************************




               1N34A           
          IS  200.000000E-09 
           N    1.3          
          BV   75            
         IBV     .018        
          RS    7            
         CJO  500.000000E-15 
          VJ     .1          
           M     .27         
          EG     .67         


**** 11/10/15 20:10:33 ****** PSpice Lite (October 2012) ****** ID# 10813 ****

 Experiment 2.2


 ****     INITIAL TRANSIENT SOLUTION       TEMPERATURE =   27.000 DEG C


******************************************************************************



 NODE   VOLTAGE     NODE   VOLTAGE     NODE   VOLTAGE     NODE   VOLTAGE


(    2)    0.0000  (    3) 94.90E-24  (   30)    0.0000  (   31)    0.0000  




    VOLTAGE SOURCE CURRENTS
    NAME         CURRENT

    Vin1         0.000E+00
    Vin2         0.000E+00

    TOTAL POWER DISSIPATION   0.00E+00  WATTS



          JOB CONCLUDED

**** 11/10/15 20:10:33 ****** PSpice Lite (October 2012) ****** ID# 10813 ****

 Experiment 2.2


 ****     JOB STATISTICS SUMMARY


******************************************************************************



  Total job time (using Solver 1)   =         .14
